/*--------------------------------*- C++ -*----------------------------------*\
| =========                 |                                                 |
| \\      /  F ield         | OpenFOAM: The Open Source CFD Toolbox           |
|  \\    /   O peration     | Version:  v2006                                 |
|   \\  /    A nd           | Website:  www.openfoam.com                      |
|    \\/     M anipulation  |                                                 |
\*---------------------------------------------------------------------------*/
FoamFile
{
    version     2.0;
    format      ascii;
    class       dictionary;
    object      setExprFieldsDict;
}
// * * * * * * * * * * * * * * * * * * * * * * * * * * * * * * * * * * * * * //


expressions
(
    p_rgh
{
    field       p_rgh;
    dimensions      [1 -1 -2 0 0 0 0];
        variables
    (   
    "xPos= pos().x()" 
    "dPdx=1e5"
    "p0=1E5"
    "Lx=1"
	);

    expression
    #{
        p0+(Lx-xPos)*dPdx
    #};
}

    p
{
    field       p;
    dimensions      [1 -1 -2 0 0 0 0];
        variables
    (   
    "xPos= pos().x()" 
    "dPdx=1e5"
    "p0=1E5"
    "Lx=1"
	);

    expression
    #{
        p0+(Lx-xPos)*dPdx
    #};
}


);

// ************************************************************************* //
