/*--------------------------------*- C++ -*----------------------------------*\
| =========                 |                                                 |
| \\      /  F ield         | OpenFOAM: The Open Source CFD Toolbox           |
|  \\    /   O peration     | Version:  4.0                                   |
|   \\  /    A nd           | Web:      www.OpenFOAM.org                      |
|    \\/     M anipulation  |                                                 |
\*---------------------------------------------------------------------------*/
FoamFile
{
    version     2.0;
    format      ascii;
    class       dictionary;
    location    "system/liquid";
    object      fvSolution;
}
// * * * * * * * * * * * * * * * * * * * * * * * * * * * * * * * * * * * * * //

solvers
{
	
	//MULES (uncomment below if using interFoam solvers)
	"alpha.liquidMetal.*"
    {
        nAlphaCorr      2;
        nAlphaSubCycles 1;
        cAlpha          1;

        MULESCorr       yes;
        nLimiterIter    5;

        solver          PBiCG;
        preconditioner        DILU;
        tolerance       1e-7;//1e-8;
        relTol          0;
    }
    
    //isoAdvector (uncomment below if using solvers)
    /*
     	"alpha.liquidMetal.*"
    {
	    advectionScheme isoAdvector;    

        nAlphaCorr      3;
        nAlphaSubCycles 2;
        cAlpha          1;

        reconstructionSchemes isoAlpha; //plicRDF;//isoAlpha; //
		vof2IsoTol 		1e-8;
        surfCellTol     1e-8;
		writeVTK false;
        nAlphaBounds    4;
        snapTol         1e-12;
        clip            true;

        writeSurfCells      false;
        writeBoundedCells   false;
        writeIsoFaces       false;

        gradAlphaNormal true;
        smoothItr 2;
        kSmoothItr 0;
    } 
     */
     
    "pcorr.*"
    {
        solver          PCG;
        preconditioner  DIC;
        tolerance       1e-7;
        relTol          0;
    }
    
    rho
    {
        solver          PCG;
        preconditioner  DIC;
        tolerance       1e-7;
        relTol          0.1;
    }

    rhoFinal
    {
        $rho;
        tolerance       1e-7;
        relTol          0;
    }

    
    p_rgh
    {
        solver          PCG;
        preconditioner  DIC;
        tolerance       1e-6;//1e-7;
        relTol          0.01;
    }

    p_rghFinal
    {
        $p_rgh;
        relTol          0;
    }

    "(U).*"
    {
        solver          PBiCG;
        preconditioner        DILU;
        minIter         1;
        tolerance       1e-06;
        relTol          0;
    }

    "(k|omega|epsilon|nuTilda).*"
    {
        solver          PBiCG;
        preconditioner        DILU;
        minIter         1;
        tolerance       1e-08;
        relTol          0;
    }
    
    "(h|T).*"
    {
        solver          PBiCG;
        preconditioner        DILU;
        minIter         0;
        maxIter         0;
        tolerance       1e-08;
        relTol          0;
    }

   Phi
    {
        solver          PCG;
        preconditioner  DIC;
        tolerance 1e-06;
        relTol 0.001;
    }
    
    potE
    {
        solver          PCG;
        preconditioner  DIC;
        tolerance       1e-6;//1e-7;
        relTol          0.01;
	}
	
	 potEFinal
    {
		$potE
		relTol 0;
	}

}

PIMPLE
{
    correctPhi           		yes;
    momentumPredictor   		no; 
    transonic                   no;
    nCorrectors         		3; 
    nOuterCorrectors    		1;
    nNonOrthogonalCorrectors 	0; 
	consistent					yes;
    turbOnFinalIterOnly         false; 


	residualControl
    {
        "(alpha.liquidMetal|alpha|U|h|T|k|epsilon)"
        {
                tolerance  1e-6;
                relTol      0;
        }
        "(p_rgh|rho)"
        {
                tolerance  1e-5;
                relTol      0;
        }
     }
}

potentialFlow
{
    nNonOrthogonalCorrectors 5;
    PhiRefCell 0;
    PhiRefValue 0;
}

/*
relaxationFactors
{	

    fields
    {
        p      0.3;
        pFinal   1;
    }
    equations
	{	
		U     					0.7;
        "(k|epsilon)"     		0.8;
        "(h|T|U|k|epsilon)Final"   1;
    }
}
*/

potE
{
    nCorrectors     0;
    nNonOrthogonalCorrectors 0;
    PotERefCell        0;
    PotERefValue       0;
}




// ************************************************************************* //
