/*--------------------------------*- C++ -*----------------------------------*\
| =========                 |                                                 |
| \\      /  F ield         | OpenFOAM: The Open Source CFD Toolbox           |
|  \\    /   O peration     | Version:  v1912                                 |
|   \\  /    A nd           | Website:  www.openfoam.com                      |
|    \\/     M anipulation  |                                                 |
\*---------------------------------------------------------------------------*/
FoamFile
{
    version     2.0;
    format      ascii;
    class       dictionary;
    location    "system/insulator";
    object      changeDictionaryDict;
}
// * * * * * * * * * * * * * * * * * * * * * * * * * * * * * * * * * * * * * //


T
{
    internalField   uniform 300;

    boundaryField
    {
       insulatorWalls
        {
            type            fixedValue;
            value           uniform 300;
        }
		
        
        "insulator_to_.*"
        {
            type            compressible::turbulentTemperatureCoupledBaffleMixed;
            Tnbr            T;
            kappaMethod     solidThermo;
            value           uniform 300;
        }

    }
}

B0
{
internalField   uniform (0 10 0);
    boundaryField
    {
        ".*"
        {
            type            zeroGradient;
            value           uniform (0 10 0);
        }
    }
}

potE
{
    internalField   uniform 0;

    boundaryField
    {
        insulatorWalls 
        {
			type zeroGradient;
			value			uniform 0;
        }
       
        "insulator_to_.*"
        {
            type            compressible::turbulentTemperatureCoupledBaffleMixed;
            Tnbr            potE;
            kappaMethod     lookup;
            kappa       	elcond;
			kappaName      	elcond;
            value           $internalField;
            
        }

    }
}
// ************************************************************************* //
