/*--------------------------------*- C++ -*----------------------------------*\
| =========                 |                                                 |
| \\      /  F ield         | OpenFOAM: The Open Source CFD Toolbox           |
|  \\    /   O peration     | Version:  v1912                                 |
|   \\  /    A nd           | Website:  www.openfoam.com                      |
|    \\/     M anipulation  |                                                 |
\*---------------------------------------------------------------------------*/
FoamFile
{
    version     2.0;
    format      ascii;
    class       dictionary;
    location    "system/solidWalls";
    object      fvSolution;
}
// * * * * * * * * * * * * * * * * * * * * * * * * * * * * * * * * * * * * * //

solvers
{
    "(h|T).*"
    {
        solver          PBiCG;
        preconditioner        DILU;
        minIter         0;
        maxIter         0;
        tolerance       1e-08;
        relTol          0;
    }
	potE
    {
        solver          PCG;
        preconditioner  DIC;
        tolerance       1e-6;//1e-7;
        relTol          0.01;
	}
	
	 potEFinal
    {
		$potE
		relTol 0;
	}

}

PIMPLE
{
    nNonOrthogonalCorrectors 0;
        
    residualControl
    {
        h
        {
                tolerance  1e-6;
                relTol      0;
        }
    }
}

potE
{
    nCorrectors     0;
    nNonOrthogonalCorrectors 0;
    PotERefCell        0;
    PotERefValue       0;
}
// ************************************************************************* //
