/*--------------------------------*- C++ -*----------------------------------*\
| =========                 |                                                 |
| \\      /  F ield         | OpenFOAM: The Open Source CFD Toolbox           |
|  \\    /   O peration     | Version:  v2206                                 |
|   \\  /    A nd           | Website:  www.openfoam.com                      |
|    \\/     M anipulation  |                                                 |
\*---------------------------------------------------------------------------*/
FoamFile
{
    version     2.0;
    format      ascii;
    class       dictionary;
    object      blockMeshDict;
}
// * * * * * * * * * * * * * * * * * * * * * * * * * * * * * * * * * * * * * //

scale   1;

Lx 1;
Ly 0.1;
Ly_wall 0.101;  //outside edge of wall liner

Ha 1000;

exp_ratio 500;
inv_ratio 0.002;

percent_cells_BL 10;
percent_cells_expansion 25;
percent_cells_center 30;

length_percent_BL 1e-4;
length_percent_expansion 2.3488e-2;
length_percent_center 0.15282;

Nx 100;
Ny #calc "2*$percent_cells_BL+2*$percent_cells_expansion+$percent_cells_center";
Nz $Ny;
N_wall 10;

vertices
(
    ( 0    -$Ly  -$Ly) // 0
    ( $Lx  -$Ly  -$Ly) // 1
    ( $Lx   $Ly  -$Ly) // 2
    ( 0     $Ly  -$Ly) // 3
    ( 0    -$Ly   $Ly) // 4
    ( $Lx  -$Ly   $Ly) // 5
    ( $Lx   $Ly   $Ly) // 6
    ( 0     $Ly   $Ly) // 7

    ( 0    -$Ly  -$Ly_wall) // 8
    ( $Lx  -$Ly  -$Ly_wall) // 9
    ( $Lx   $Ly  -$Ly_wall) // 10
    ( 0     $Ly  -$Ly_wall) // 11

    ( 0    -$Ly_wall -$Ly_wall) // 12
    ( $Lx  -$Ly_wall -$Ly_wall) // 13
    ( $Lx   $Ly_wall -$Ly_wall) // 14
    ( 0     $Ly_wall -$Ly_wall) // 15

    ( 0    -$Ly_wall -$Ly ) // 16
    ( $Lx  -$Ly_wall -$Ly ) // 17
    ( $Lx   $Ly_wall -$Ly ) // 18
    ( 0     $Ly_wall -$Ly ) // 19

    ( 0    -$Ly  $Ly_wall) // 20 
    ( $Lx  -$Ly  $Ly_wall) // 21
    ( $Lx   $Ly  $Ly_wall) // 22
    ( 0     $Ly  $Ly_wall) // 23

    ( 0    -$Ly_wall $Ly_wall) // 24
    ( $Lx  -$Ly_wall $Ly_wall) // 25
    ( $Lx   $Ly_wall $Ly_wall) // 26
    ( 0     $Ly_wall $Ly_wall) // 27

    ( 0    -$Ly_wall $Ly ) // 28
    ( $Lx  -$Ly_wall $Ly ) // 29
    ( $Lx   $Ly_wall $Ly ) // 30
    ( 0     $Ly_wall $Ly ) // 31

);

blocks
(
    // % y-dir, % of cells, expansion ratio
    hex (0 1 2 3 4 5 6 7) ($Nx $Ny $Nz) 
    
    simpleGrading (1 
        (($length_percent_BL $percent_cells_BL 1)
        ($length_percent_expansion $percent_cells_expansion $exp_ratio)
        ($length_percent_center $percent_cells_center 1)
        ($length_percent_expansion $percent_cells_expansion $inv_ratio)
        ($length_percent_BL $percent_cells_BL 1)  ) 
        
        (($length_percent_BL $percent_cells_BL 1)
        ($length_percent_expansion $percent_cells_expansion $exp_ratio)
        ($length_percent_center $percent_cells_center 1)
        ($length_percent_expansion $percent_cells_expansion $inv_ratio)
        ($length_percent_BL $percent_cells_BL 1)))	// liquid
    

    hex (12 13 9 8 16 17 1 0) ($Nx $N_wall $N_wall) simpleGrading (1 1 1)	// corner 1
    hex (11 10 14 15 3 2 18 19) ($Nx $N_wall $N_wall) simpleGrading (1 1 1)// corner 2
    hex (8 9 10 11 0 1 2 3 ) ($Nx $Ny $N_wall) simpleGrading (1 (($length_percent_BL $percent_cells_BL 1) ($length_percent_expansion $percent_cells_expansion $exp_ratio) ($length_percent_center $percent_cells_center 1) ($length_percent_expansion $percent_cells_expansion $inv_ratio) ($length_percent_BL $percent_cells_BL 1)  ) 1)	// floor
    hex (28 29 5 4 24 25 21 20) ($Nx $N_wall $N_wall) simpleGrading (1 1 1)// corner 3 
    hex (7 6 30 31 23 22 26 27) ($Nx $N_wall $N_wall) simpleGrading (1 1 1)// corner 4
    hex (4 5 6 7 20 21 22 23) ($Nx $Ny $N_wall) simpleGrading (1 (($length_percent_BL $percent_cells_BL 1) ($length_percent_expansion $percent_cells_expansion $exp_ratio) ($length_percent_center $percent_cells_center 1) ($length_percent_expansion $percent_cells_expansion $inv_ratio) ($length_percent_BL $percent_cells_BL 1)  )  1)	// top
    hex (16 17 1 0 28 29 5 4)($Nx $N_wall $Nz) simpleGrading (1 1 (($length_percent_BL $percent_cells_BL 1) ($length_percent_expansion $percent_cells_expansion $exp_ratio) ($length_percent_center $percent_cells_center 1) ($length_percent_expansion $percent_cells_expansion $inv_ratio) ($length_percent_BL $percent_cells_BL 1)  ))	// side 1 
    hex (3 2 18 19 7 6 30 31)($Nx $N_wall $Nz) simpleGrading (1 1 (($length_percent_BL $percent_cells_BL 1) ($length_percent_expansion $percent_cells_expansion $exp_ratio) ($length_percent_center $percent_cells_center 1) ($length_percent_expansion $percent_cells_expansion $inv_ratio) ($length_percent_BL $percent_cells_BL 1)  ))	// side 2
);

edges
(
);

boundary
(
    inlet
    {
        type patch;
        faces
        (
            (0 4 7 3)
        );
    }
    sink
    {
        type patch;
        faces
        (
            (2 6 5 1)
        );
    }

    exteriorWalls 
    {
        type patch;
        faces
        (
	//(12 16 0 8)	//0 inlet right corner 
	//(8 0 3 11)	//1 inlet bottom
	//(11 3 19 15)	//2 inlet left corner
	(3 7 31 19)	//3 inlet left wall
	//(7 23 27 31)	//4 inlet right top
	//(4 20 23 7)	//5 inlet top center
	//(28 24 20 4)	//6 inlet top right
	(16 28 4 0)	//7 inlet right wall
	
	//(13 17 16 12)	//8 right bottom corner wall
	(17 29 28 16)	//9 right wall
	//(29 25 24 28)	//10 right upper corner wall
	//(25 21 20 24)	//11 top right corner wall
	//(21 22 23 20)	//12 top center wall
	//(22 26 27 23)	//13 top left corner wall
	//(30 26 27 31)	//14 left upper corner
	(18 30 31 19)	//15 left wall
	//(14 18 19 15)	//16 left lower
	//(10 14 15 11)	//17 bottom left
	//(9 10 11 8)	//18 bottom wall
	//(13 9 8 12)	//19 bottom right

	//(13 17 1 9)	//20 outlet right bottom
	//(9 1 2 10)	//21 outlet bottom
	//(10 2 18 14)	//22 outlet left bottom
	(17 29 5 1)	//23 outlet right
	(2 6 30 18)	//24 outlet left
	//(29 25 21 5)	//25 outlet top right
	//(5 21 22 6)	//26 outlet top
	//(6 22 26 30)	//27 outlet left
	//(3 19 15 11)
        // (1 5 4 0)
	// (3 7 6 2)
	// (0 3 2 1)
	// (4 5 6 7)
        );
    }
    insulatorWalls 
    {
        type patch;
        faces
        (
	(12 16 0 8)	//0 inlet right corner 
	(8 0 3 11)	//1 inlet bottom
	(11 3 19 15)	//2 inlet left corner
	//(3 7 31 19)	//3 inlet left wall
	(7 23 27 31)	//4 inlet right top
	(4 20 23 7)	//5 inlet top center
	(28 24 20 4)	//6 inlet top right
	//(16 28 4 0)	//7 inlet right wall
	
	(13 17 16 12)	//8 right bottom corner wall
	//(17 29 28 16)	//9 right wall
	(29 25 24 28)	//10 right upper corner wall
	(25 21 20 24)	//11 top right corner wall
	(21 22 23 20)	//12 top center wall
	(22 26 27 23)	//13 top left corner wall
	(30 26 27 31)	//14 left upper corner
	//(18 30 31 19)	//15 left wall
	(14 18 19 15)	//16 left lower
	(10 14 15 11)	//17 bottom left
	(9 10 11 8)	//18 bottom wall
	(13 9 8 12)	//19 bottom right

	(13 17 1 9)	//20 outlet right bottom
	(9 1 2 10)	//21 outlet bottom
	(10 2 18 14)	//22 outlet left bottom
	//(17 29 5 1)	//23 outlet right
	//(2 6 30 18)	//24 outlet left
	(29 25 21 5)	//25 outlet top right
	(5 21 22 6)	//26 outlet top
	(6 22 26 30)	//27 outlet left
	//(3 19 15 11)
        // (1 5 4 0)
	// (3 7 6 2)
	// (0 3 2 1)
	// (4 5 6 7)
        );

    }








);

mergePatchPairs
(
);


// ************************************************************************* //
