/*--------------------------------*- C++ -*----------------------------------*\
| =========                 |                                                 |
| \\      /  F ield         | OpenFOAM: The Open Source CFD Toolbox           |
|  \\    /   O peration     | Version:  v2206                                 |
|   \\  /    A nd           | Website:  www.openfoam.com                      |
|    \\/     M anipulation  |                                                 |
\*---------------------------------------------------------------------------*/
FoamFile
{
    version     2.0;
    format      ascii;
    class       dictionary;
    object      topoSetDict;
}
// * * * * * * * * * * * * * * * * * * * * * * * * * * * * * * * * * * * * * //

Lx 1;
Ly 0.1;
Ly_wall 0.101;  //outside edge of wall liner

actions
(
    {
        name    liquidCellSet;
        type    cellSet;
        action  new;
        source  boxToCell;
        box     (0 -$Ly -$Ly) ($Lx  $Ly $Ly);
    }
    {
        name    liquid;
        type    cellZoneSet;
        action  new;
        source  setToCellZone;
        set     liquidCellSet;
    }



    { 
        name    corner1Set; // bottom right
        type    cellSet;
        action  new;
        source  boxToCell;
        box     (0 -$Ly_wall -$Ly_wall) ($Lx  -$Ly -$Ly);
    }
    {
        name    corner2Set; // top right
        type    cellSet;
        action  new;
        source  boxToCell;
        box     (0 -$Ly_wall $Ly) ($Lx  -$Ly $Ly_wall);
    }
    {
        name    corner3Set; // top left
        type    cellSet;
        action  new;
        source  boxToCell;
        box     (0 $Ly $Ly) ($Lx  $Ly_wall $Ly_wall);
    }
    {
        name    corner4Set; // bottom left
        type    cellSet;
        action  new;
        source  boxToCell;
        box     (0 $Ly -$Ly_wall) ($Lx  $Ly_wall -$Ly);
    }
    {
        name    sideWall1Set; // bottom wall
        type    cellSet;
        action  new;
        source  boxToCell;
        box     (0 -$Ly -$Ly_wall) ($Lx  $Ly -$Ly);
    }
    {
        name    sideWall2Set; // top wall
        type    cellSet;
        action  new;
        source  boxToCell;
        box     (0 -$Ly $Ly) ($Lx  $Ly $Ly_wall);
    }

    { 
        name    HaWall1Set; // Ha wall
        type    cellSet;
        action  new;
        source  boxToCell;
        box     (0 -$Ly_wall -$Ly) ($Lx  -$Ly $Ly);
    }
    {
        name    HaWall2Set; // ha wall
        type    cellSet;
        action  new;
        source  boxToCell;
        box     (0 $Ly -$Ly) ($Lx  $Ly_wall $Ly);
    }





    {
        name    solidWalls;
        type    cellZoneSet;
        action  new;
        source  setToCellZone;
        set     HaWall1Set;
    }
    {
        name    solidWalls;
        type    cellZoneSet;
        action  add;
        source  setToCellZone;
        set     HaWall2Set;
    }





    {
        name    insulator;
        type    cellZoneSet;
        action  new;
        source  setToCellZone;
        set     corner1Set;
    }
    {
        name    insulator;
        type    cellZoneSet;
        action  add;
        source  setToCellZone;
        set     corner2Set;
    }
    {
        name    insulator;
        type    cellZoneSet;
        action  add;
        source  setToCellZone;
        set     corner3Set;
    }
    {
        name    insulator;
        type    cellZoneSet;
        action  add;
        source  setToCellZone;
        set     corner4Set;
    }
    {
        name    insulator;
        type    cellZoneSet;
        action  add;
        source  setToCellZone;
        set     sideWall1Set;
    }
    {
        name    insulator;
        type    cellZoneSet;
        action  add;
        source  setToCellZone;
        set     sideWall2Set;
    }



	// walls face zone
    {   
        name    wallsFace;
        type    faceSet;
        action  new;
        source  cellToFace;
	option 	all;
        set     liquidCellSet;

    }

    {
	name 	inletFace;
	type	faceSet;
	action	new;
	source	patchToFace;
	patch	inlet;
    }
    {   
        name    wallsFace;
        type    faceSet;
        action  subtract;
        source  faceToFace;
	set	inletFace;
    }
    {
	name 	outletFace;
	type	faceSet;
	action	new;
	source	patchToFace;
	patch	sink;
    }
    {   
        name    wallsFace;
        type    faceSet;
        action  subtract;
        source  faceToFace;
	set 	outletFace;
    }
    {
	name	walls;
	type	faceZoneSet;
	action	new;
	source	setToFaceZone;
	faceSet	wallsFace;
    }

);






// ************************************************************************* //
