/*--------------------------------*- C++ -*----------------------------------*\
| =========                 |                                                 |
| \\      /  F ield         | OpenFOAM: The Open Source CFD Toolbox           |
|  \\    /   O peration     | Version:  2206                                  |
|   \\  /    A nd           | Website:  www.openfoam.com                      |
|    \\/     M anipulation  |                                                 |
\*---------------------------------------------------------------------------*/
FoamFile
{
    version     2.0;
    format      binary;
    arch        "LSB;label=32;scalar=64";
    class       volVectorField;
    location    "0/liquid";
    object      B0;
}
// * * * * * * * * * * * * * * * * * * * * * * * * * * * * * * * * * * * * * //

dimensions      [ 1 0 -2 0 0 -1 0 ];

internalField   uniform ( 0 10 0 );

boundaryField
{
    inlet
    {
        type            zeroGradient;
        value           uniform ( 0 10 0 );
    }
    sink
    {
        type            zeroGradient;
        value           uniform ( 0 10 0 );
    }
    liquid_to_solidWalls
    {
        type            zeroGradient;
        value           uniform ( 0 10 0 );
    }
    liquid_to_insulator
    {
        type            zeroGradient;
        value           uniform ( 0 10 0 );
    }
}


// ************************************************************************* //
