/*--------------------------------*- C++ -*----------------------------------*\
| =========                 |                                                 |
| \\      /  F ield         | OpenFOAM: The Open Source CFD Toolbox           |
|  \\    /   O peration     | Version:  2206                                  |
|   \\  /    A nd           | Website:  www.openfoam.com                      |
|    \\/     M anipulation  |                                                 |
\*---------------------------------------------------------------------------*/
FoamFile
{
    version     2.0;
    format      binary;
    arch        "LSB;label=32;scalar=64";
    class       volScalarField;
    location    "0/liquid";
    object      potE;
}
// * * * * * * * * * * * * * * * * * * * * * * * * * * * * * * * * * * * * * //

dimensions      [ 1 2 -3 0 0 -1 0 ];

internalField   uniform 0;

boundaryField
{
    inlet
    {
        type            codedFixedValue;
        value           uniform 0;
        name            outletUxB;
    }
    sink
    {
        type            zeroGradient;
        value           uniform 0;
    }
    liquid_to_solidWalls
    {
        type            compressible::turbulentTemperatureCoupledBaffleMixed;
        value           $internalField;
        Tnbr            potE;
        kappaMethod     lookup;
        kappa           elcond;
        kappaName       elcond;
    }
    liquid_to_insulator
    {
        type            compressible::turbulentTemperatureCoupledBaffleMixed;
        value           $internalField;
        Tnbr            potE;
        kappaMethod     lookup;
        kappa           elcond;
        kappaName       elcond;
    }
    exteriorWalls
    {
        type            zeroGradient;
        value           uniform 0;
    }
    walls
    {
        type            zeroGradient;
    }
    topOpening
    {
        type            zeroGradient;
    }
}


// ************************************************************************* //
