/*--------------------------------*- C++ -*----------------------------------*\
| =========                 |                                                 |
| \\      /  F ield         | OpenFOAM: The Open Source CFD Toolbox           |
|  \\    /   O peration     | Version:  2206                                  |
|   \\  /    A nd           | Website:  www.openfoam.com                      |
|    \\/     M anipulation  |                                                 |
\*---------------------------------------------------------------------------*/
FoamFile
{
    version     2.0;
    format      binary;
    arch        "LSB;label=32;scalar=64";
    class       volVectorField;
    location    "0/liquid";
    object      U;
}
// * * * * * * * * * * * * * * * * * * * * * * * * * * * * * * * * * * * * * //

dimensions      [ 0 1 -1 0 0 0 0 ];

internalField   uniform ( 0.9725 0 0 );

boundaryField
{
    inlet
    {
        type            flowRateInletVelocity;
        value           uniform ( 0.9725 0 0 );
        volumetricFlowRate 0.0389;
        extrapolateProfile yes;
    }
    sink
    {
        type            zeroGradient;
        value           uniform ( 0.9725 0 0 );
    }
    liquid_to_solidWalls
    {
        type            noSlip;
        value           uniform ( 0 0 0 );
    }
    liquid_to_insulator
    {
        type            noSlip;
        value           uniform ( 0 0 0 );
    }
}


// ************************************************************************* //
